Version 4
SHEET 1 1320 760
WIRE 112 -128 16 -128
WIRE 160 -128 112 -128
WIRE 96 -80 96 -96
WIRE 16 16 16 -128
WIRE 160 16 160 -128
WIRE 160 16 16 16
WIRE -96 32 -144 32
WIRE 0 32 -96 32
WIRE 208 32 16 32
WIRE 1072 48 1072 16
WIRE 96 64 96 0
WIRE 48 80 -80 80
WIRE -80 96 -80 80
WIRE 48 160 48 128
WIRE 960 160 928 160
WIRE 1136 160 1040 160
WIRE 496 192 400 192
WIRE 560 192 496 192
WIRE -80 208 -80 176
WIRE 16 224 16 32
WIRE 160 224 16 224
WIRE 208 224 208 32
WIRE 208 224 160 224
WIRE -144 240 -144 32
WIRE 0 240 0 32
WIRE 0 240 -144 240
WIRE 1072 240 1072 128
WIRE 832 256 752 256
WIRE 928 256 928 160
WIRE 928 256 912 256
WIRE 1040 256 928 256
WIRE 96 272 96 144
WIRE 448 272 96 272
WIRE 1136 272 1136 160
WIRE 1136 272 1104 272
WIRE 1264 272 1136 272
WIRE 1040 288 976 288
WIRE 272 336 48 336
WIRE 384 336 272 336
WIRE 832 336 784 336
WIRE 880 336 832 336
WIRE 976 336 976 288
WIRE 976 336 960 336
WIRE 96 352 96 272
WIRE 192 352 96 352
WIRE 304 352 192 352
WIRE 784 352 784 336
WIRE 976 352 976 336
WIRE 512 368 512 320
WIRE 96 384 96 352
WIRE 192 384 192 352
WIRE 304 384 304 352
WIRE 1072 384 1072 304
WIRE 400 400 400 192
WIRE 560 400 560 192
WIRE 560 400 400 400
WIRE 560 416 400 416
WIRE 464 432 464 320
WIRE 976 448 976 432
WIRE 784 464 784 432
WIRE 96 480 96 464
WIRE 192 480 192 464
WIRE 192 480 96 480
WIRE 304 480 304 448
WIRE 304 480 192 480
WIRE 48 496 48 336
WIRE 384 496 384 336
WIRE 384 496 48 496
WIRE 464 544 464 512
WIRE 400 576 400 416
WIRE 512 576 400 576
WIRE 560 576 560 416
WIRE 560 576 512 576
WIRE 96 592 96 480
FLAG 48 160 0
FLAG -80 208 0
FLAG 96 592 0
FLAG 160 224 Mrst
FLAG -96 32 RST
FLAG 96 -96 0
FLAG 112 -128 VRST
FLAG 272 336 FOTODIODO
FLAG 512 368 0
FLAG 464 544 0
FLAG 496 192 Msel
FLAG 512 576 SEL
FLAG 832 336 VREF
FLAG 1072 16 0
FLAG 1072 384 0
FLAG 784 464 0
FLAG 976 448 0
FLAG 752 256 fotodiodo_IN
FLAG 1264 272 out
SYMBOL sw 96 160 M180
SYMATTR InstName S1
SYMATTR Value SW2
SYMBOL current 96 384 R0
WINDOW 0 24 80 Left 2
WINDOW 3 24 0 Left 2
WINDOW 123 0 0 Left 0
WINDOW 39 0 0 Left 0
SYMATTR InstName I1
SYMATTR Value 100n
SYMBOL res 176 368 R0
SYMATTR InstName R1
SYMATTR Value 5G
SYMBOL cap 288 384 R0
SYMATTR InstName C1
SYMATTR Value 70p
SYMBOL voltage 96 16 R180
WINDOW 0 24 96 Left 2
WINDOW 3 24 16 Left 2
WINDOW 123 0 0 Left 0
WINDOW 39 0 0 Left 0
SYMATTR InstName V1
SYMATTR Value 3.3
SYMBOL sw 544 272 M270
SYMATTR InstName S2
SYMATTR Value SW1
SYMBOL voltage 464 416 M0
WINDOW 3 -77 94 Left 0
WINDOW 123 0 0 Left 0
WINDOW 39 0 0 Left 0
SYMATTR InstName V3
SYMATTR Value PULSE(0 3 3m 0 0 1m 5m)
SYMBOL OpAmps\\opamp2 1072 208 R0
SYMATTR InstName U1
SYMATTR Value LM741
SYMBOL voltage 1072 144 R180
WINDOW 0 24 96 Left 2
WINDOW 3 24 16 Left 2
WINDOW 123 0 0 Left 0
WINDOW 39 0 0 Left 0
SYMATTR InstName V4
SYMATTR Value 5
SYMBOL res 1056 144 R90
WINDOW 0 0 56 VBottom 2
WINDOW 3 32 56 VTop 2
SYMATTR InstName R3
SYMATTR Value 660
SYMBOL res 928 240 R90
WINDOW 0 0 56 VBottom 2
WINDOW 3 32 56 VTop 2
SYMATTR InstName R2
SYMATTR Value 1K
SYMBOL voltage 784 336 R0
WINDOW 123 0 0 Left 0
WINDOW 39 0 0 Left 0
SYMATTR InstName V5
SYMATTR Value 3.3
SYMBOL voltage -80 80 R0
WINDOW 3 -56 98 Left 0
WINDOW 123 0 0 Left 0
WINDOW 39 0 0 Left 0
SYMATTR InstName V2
SYMATTR Value PULSE(0 3 0 0 0 1.5m 5m)
SYMBOL res 976 320 R90
WINDOW 0 0 56 VBottom 2
WINDOW 3 32 56 VTop 2
SYMATTR InstName R4
SYMATTR Value 1k
SYMBOL res 960 448 M180
WINDOW 0 36 76 Left 2
WINDOW 3 36 40 Left 2
SYMATTR InstName R5
SYMATTR Value 660
TEXT -272 676 Left 2 !.tran 0 20m 0 10u
TEXT -272 720 Left 2 !.model SW2 SW(Ron=0.1m Roff=5Meg Vt=2.98 Vh=0)
TEXT -272 696 Left 2 !.model SW1 SW(Ron=0.1m Roff=5Meg Vt=2.98 Vh=0)
TEXT -272 744 Left 2 !.lib C:\\Users\\assis\\OneDrive\\Área de Trabalho\\opamp.txt
