Version 4
SHEET 1 1844 760
WIRE 112 -128 16 -128
WIRE 160 -128 112 -128
WIRE 96 -80 96 -96
WIRE 16 16 16 -128
WIRE 160 16 160 -128
WIRE 160 16 16 16
WIRE -96 32 -144 32
WIRE 0 32 -96 32
WIRE 208 32 16 32
WIRE 96 64 96 0
WIRE 48 80 -80 80
WIRE -80 96 -80 80
WIRE 48 160 48 128
WIRE 512 176 416 176
WIRE 576 176 512 176
WIRE -80 208 -80 176
WIRE 16 224 16 32
WIRE 160 224 16 224
WIRE 208 224 208 32
WIRE 208 224 160 224
WIRE 384 224 240 224
WIRE -144 240 -144 32
WIRE 0 240 0 32
WIRE 0 240 -144 240
WIRE 96 256 96 144
WIRE 320 256 96 256
WIRE 464 256 320 256
WIRE 640 256 544 256
WIRE 656 256 640 256
WIRE 240 288 240 224
WIRE 384 288 384 224
WIRE 384 288 240 288
WIRE 272 336 48 336
WIRE 384 336 272 336
WIRE 96 352 96 256
WIRE 192 352 96 352
WIRE 304 352 192 352
WIRE 528 352 528 304
WIRE 96 384 96 352
WIRE 192 384 192 352
WIRE 304 384 304 352
WIRE 416 384 416 176
WIRE 576 384 576 176
WIRE 576 384 416 384
WIRE 576 400 416 400
WIRE 480 416 480 304
WIRE 96 480 96 464
WIRE 192 480 192 464
WIRE 192 480 96 480
WIRE 304 480 304 448
WIRE 304 480 192 480
WIRE 48 496 48 336
WIRE 384 496 384 336
WIRE 384 496 48 496
WIRE 480 528 480 496
WIRE 416 560 416 400
WIRE 528 560 416 560
WIRE 576 560 576 400
WIRE 576 560 528 560
WIRE 96 592 96 480
FLAG 48 160 0
FLAG -80 208 0
FLAG 96 592 0
FLAG 160 224 Mrst
FLAG -96 32 RST
FLAG 96 -96 0
FLAG 112 -128 VRST
FLAG 272 336 FOTODIODO
FLAG 528 352 0
FLAG 480 528 0
FLAG 512 176 Msel
FLAG 528 560 SEL
FLAG 640 256 out
FLAG 320 256 Msf
SYMBOL sw 96 160 M180
SYMATTR InstName S1
SYMATTR Value SW2
SYMBOL current 96 384 R0
WINDOW 0 24 80 Left 2
WINDOW 3 24 0 Left 2
WINDOW 123 0 0 Left 0
WINDOW 39 0 0 Left 0
SYMATTR InstName I1
SYMATTR Value 100n
SYMBOL res 176 368 R0
SYMATTR InstName R1
SYMATTR Value 5G
SYMBOL cap 288 384 R0
SYMATTR InstName C1
SYMATTR Value 70p
SYMBOL voltage 96 16 R180
WINDOW 0 24 96 Left 2
WINDOW 3 24 16 Left 2
WINDOW 123 0 0 Left 0
WINDOW 39 0 0 Left 0
SYMATTR InstName V1
SYMATTR Value 3.3
SYMBOL sw 560 256 M270
SYMATTR InstName S2
SYMATTR Value SW1
SYMBOL voltage 480 400 M0
WINDOW 3 -77 94 Left 0
WINDOW 123 0 0 Left 0
WINDOW 39 0 0 Left 0
SYMATTR Value PULSE(0 3 4m 0 0 1m 5m)
SYMATTR InstName V3
SYMBOL voltage -80 80 R0
WINDOW 3 -56 98 Left 0
WINDOW 123 0 0 Left 0
WINDOW 39 0 0 Left 0
SYMATTR Value PULSE(0 3 4.5m 0 0 0.5m 5m)
SYMATTR InstName V2
TEXT -264 672 Left 2 !.tran 0 20m 0 10u
TEXT -272 720 Left 2 !.model SW2 SW(Ron=0.1m Roff=5Meg Vt=2.98 Vh=0)
TEXT -272 696 Left 2 !.model SW1 SW(Ron=0.1m Roff=5Meg Vt=2.98 Vh=0)
TEXT -272 744 Left 2 !.lib C:\\Users\\assis\\OneDrive\\Área de Trabalho\\opamp.txt
