Version 4
SHEET 1 1844 760
WIRE 112 -128 16 -128
WIRE 160 -128 112 -128
WIRE 96 -80 96 -96
WIRE 16 16 16 -128
WIRE 160 16 160 -128
WIRE 160 16 16 16
WIRE 496 16 464 16
WIRE 608 16 576 16
WIRE 0 32 -144 32
WIRE 208 32 16 32
WIRE 336 48 240 48
WIRE 464 48 464 16
WIRE 464 48 416 48
WIRE 96 64 96 0
WIRE -32 80 -80 80
WIRE 48 80 -32 80
WIRE -80 96 -80 80
WIRE 464 96 464 48
WIRE 496 96 464 96
WIRE 592 112 560 112
WIRE 608 112 608 16
WIRE 608 112 592 112
WIRE 496 128 240 128
WIRE 48 160 48 128
WIRE 656 176 560 176
WIRE 720 176 656 176
WIRE -80 208 -80 176
WIRE 16 224 16 32
WIRE 160 224 16 224
WIRE 208 224 208 32
WIRE 208 224 160 224
WIRE -144 240 -144 32
WIRE 0 240 0 32
WIRE 0 240 -144 240
WIRE 592 256 592 112
WIRE 608 256 592 256
WIRE 784 256 688 256
WIRE 800 256 784 256
WIRE 96 288 96 144
WIRE 240 288 240 128
WIRE 240 288 96 288
WIRE 272 336 48 336
WIRE 384 336 272 336
WIRE 96 352 96 288
WIRE 192 352 96 352
WIRE 304 352 192 352
WIRE 672 352 672 304
WIRE 96 384 96 352
WIRE 192 384 192 352
WIRE 304 384 304 352
WIRE 560 384 560 176
WIRE 720 384 720 176
WIRE 720 384 560 384
WIRE 720 400 560 400
WIRE 624 432 624 304
WIRE 624 464 624 432
WIRE 96 480 96 464
WIRE 192 480 192 464
WIRE 192 480 96 480
WIRE 304 480 304 448
WIRE 304 480 192 480
WIRE 48 496 48 336
WIRE 384 496 384 336
WIRE 384 496 48 496
WIRE 624 576 624 544
WIRE 96 592 96 480
WIRE 560 592 560 400
WIRE 720 592 720 400
WIRE 720 592 560 592
FLAG 48 160 0
FLAG -80 208 0
FLAG 96 592 0
FLAG 160 224 Mrst
FLAG -32 80 RST
FLAG 96 -96 0
FLAG 112 -128 VRST
FLAG 272 336 FOTODIODO
FLAG 672 352 0
FLAG 624 576 0
FLAG 656 176 Msel
FLAG 624 432 SEL
FLAG 784 256 out
FLAG 240 48 0
SYMBOL sw 96 160 M180
SYMATTR InstName S1
SYMATTR Value SW2
SYMBOL current 96 384 R0
WINDOW 0 24 80 Left 2
WINDOW 3 24 0 Left 2
WINDOW 123 0 0 Left 0
WINDOW 39 0 0 Left 0
SYMATTR InstName I1
SYMATTR Value 45n
SYMBOL res 176 368 R0
SYMATTR InstName Rsh
SYMATTR Value 5G
SYMBOL cap 288 384 R0
SYMATTR InstName C1
SYMATTR Value 70p
SYMBOL voltage 96 16 R180
WINDOW 0 24 96 Left 2
WINDOW 3 24 16 Left 2
WINDOW 123 0 0 Left 0
WINDOW 39 0 0 Left 0
SYMATTR InstName V1
SYMATTR Value 3.3
SYMBOL voltage 624 448 M0
WINDOW 3 -77 94 Left 0
WINDOW 123 0 0 Left 0
WINDOW 39 0 0 Left 0
SYMATTR Value PULSE(0 3 2.74m 0 0 1.5m 5m)
SYMATTR InstName V3
SYMBOL voltage -80 80 R0
WINDOW 3 -56 98 Left 0
WINDOW 123 0 0 Left 0
WINDOW 39 0 0 Left 0
SYMATTR Value PULSE(0 3 0 0 0 1m 5m)
SYMATTR InstName V2
SYMBOL OpAmps\\opamp 528 48 R0
SYMATTR InstName U1
SYMBOL res 320 32 M90
WINDOW 0 0 56 VBottom 2
WINDOW 3 32 56 VTop 2
SYMATTR InstName R4
SYMATTR Value 9.9k
SYMBOL res 592 0 R90
WINDOW 0 0 56 VBottom 2
WINDOW 3 32 56 VTop 2
SYMATTR InstName R5
SYMATTR Value 5.1k
SYMBOL sw 704 256 M270
SYMATTR InstName S2
SYMATTR Value SW2
TEXT -264 672 Left 2 !.tran 0 20m 0 10u
TEXT -272 720 Left 2 !.model SW2 SW(Ron=0.1m Roff=5Meg Vt=2.99 Vh=0)
TEXT -272 696 Left 2 !.model SW1 SW(Ron=0.1m Roff=5Meg Vt=2.99 Vh=0)
TEXT -272 744 Left 2 !.lib opamp.txt
TEXT 1064 400 Left 2 !.lib opamp.sub
